157
Coordinates from ORCA-job TS1SAFEF_cs13 E -3789.128183261150
  O       2.549747      0.265974     -1.604641
  C       3.395718     -0.667684     -1.476205
  C       3.467948     -1.733490     -2.523080
  C       4.446336     -2.762675     -2.520402
  N       5.296450     -2.959880     -1.442385
  C       6.578136     -3.636674     -1.621289
  C       4.893725     -2.625527     -0.115329
  O       3.552410     -3.077052      0.161699
  C       3.512885     -4.502975      0.437677
  O       5.705837     -2.613682      0.804493
  C       4.563830     -3.582794     -3.657629
  C       3.707060     -3.435243     -4.739319
  C       2.709311     -2.462124     -4.723288
  C       2.613948     -1.619088     -3.624304
  N       4.300696     -0.757272     -0.512746
  C       4.355387      0.176845      0.535332
  C       3.445645      0.008443      1.587846
  C       3.418732      0.855819      2.685741
  C       4.333781      1.899461      2.745506
  C       5.266024      2.056403      1.722151
  C       5.323984      1.211930      0.604077
  C       6.396401      1.430211     -0.477159
  C       7.367061      2.564352     -0.108793
  C       7.241922      0.155713     -0.665875
  C       5.735090      1.821367     -1.811842
  H       6.465970     -4.728320     -1.698627
  H       7.203489     -3.411071     -0.756849
  H       7.073535     -3.268994     -2.526198
  C       2.974155     -5.298305     -0.737093
  H       5.316665     -4.363218     -3.682544
  H       3.816817     -4.095152     -5.596116
  H       2.032456     -2.347580     -5.564581
  H       1.883315     -0.815927     -3.608172
  H       1.609223     -2.500697      0.254210
  H       2.756379     -0.825065      1.519762
  H       2.692098      0.700346      3.479420
  H       4.338341      2.586248      3.587543
  H       5.976339      2.869782      1.811871
  H       8.116404      2.653149     -0.902609
  H       7.896360      2.361789      0.828927
  H       6.859593      3.531589     -0.023519
  H       8.020108      0.342318     -1.415892
  H       6.631694     -0.686885     -0.994635
  H       7.731324     -0.122427      0.274442
  H       6.507414      1.996900     -2.570669
  H       5.162257      2.747574     -1.685820
  H       5.060805      1.046938     -2.180823
  O      -2.832740      4.256000     -1.450393
  C      -2.034994      3.648973     -0.741150
  N      -2.289694      3.280820      0.542291
  C      -3.557997      3.470679      1.179241
  C      -4.640351      2.457351      0.908413
  N      -4.332941      1.450905      0.057130
  C      -5.309028      0.422344     -0.260284
  H      -6.293893      0.890264     -0.212423
  C      -5.087209     -0.130823     -1.681814
  C      -5.376489      0.904087     -2.738897
  C      -4.341977      1.576427     -3.392165
  C      -4.623682      2.554304     -4.344745
  C      -5.943225      2.870320     -4.655965
  C      -6.982882      2.202853     -4.009098
  C      -6.699507      1.228030     -3.057602
  C      -5.195050     -0.737224      0.737345
  N      -6.310146     -1.159833      1.353976
  C      -7.634569     -0.558003      1.138500
  O      -4.079743     -1.268092      0.924925
  O      -5.750566      2.563749      1.442395
  C      -3.525811      4.052755      2.578480
  C      -4.012318      4.890462      1.446031
  C      -0.644581      3.289224     -1.269611
  H      -0.772052      3.063675     -2.334776
  N      -0.050097      2.134979     -0.578450
  C      -0.666973      0.945725     -0.657112
  C      -0.176157     -0.218290      0.200221
  H       0.756822      0.026858      0.712230
  C       0.023513     -1.456657     -0.681281
  N       0.604433     -2.551719      0.088343
  C      -0.110585     -3.390729      0.864173
  N       0.352522     -3.729358      2.080707
  C       1.141618     -2.801228      2.894105
  C       0.157749     -5.065613      2.646345
  N      -1.262102     -3.919219      0.410441
  C      -1.496455     -4.197511     -1.005778
  C      -2.380182     -4.222082      1.304564
  N      -1.197484     -0.510098      1.203309
  C      -1.351485      0.368658      2.261791
  N      -2.494920      0.140111      2.989670
  C      -2.980306      0.901246      4.064398
  C      -4.357975      0.841258      4.317016
  C      -4.911361      1.555545      5.370897
  C      -4.103618      2.343010      6.189874
  C      -2.733395      2.389316      5.946191
  C      -2.161798      1.672020      4.898841
  O      -0.518295      1.243205      2.522398
  O      -1.702565      0.798515     -1.332715
  C       1.226109      2.485804      0.073659
  C       1.697479      3.657237     -0.779792
  H       2.427235      4.282821     -0.253055
  N       2.287956      3.139686     -2.018530
  C       2.862070      3.968731     -2.897161
  C       3.487241      3.327165     -4.147562
  F       2.875177      3.867990     -5.251824
  F       3.286203      1.971605     -4.202495
  O       2.934364      5.193432     -2.788397
  C       0.386239      4.414707     -1.049204
  H      -1.571391      2.793995      1.067281
  H      -3.395622      1.356356     -0.324437
  H      -5.756953     -0.990999     -1.808150
  H      -4.057887     -0.497160     -1.763322
  H      -3.310762      1.340021     -3.143176
  H      -3.807618      3.072087     -4.841731
  H      -6.162505      3.632158     -5.398995
  H      -8.015758      2.440748     -4.248989
  H      -7.513915      0.707773     -2.556197
  H      -7.628881      0.507056      1.390673
  H      -8.343201     -1.063840      1.796267
  H      -7.973196     -0.690753      0.104969
  H       0.708238     -1.203424     -1.494039
  H      -0.934792     -1.747788     -1.117449
  H       1.121577     -5.419846      3.029103
  H      -0.184292     -5.754381      1.872211
  H      -0.562501     -5.052165      3.472973
  H      -2.512613     -5.303067      1.434027
  H      -3.290450     -3.799404      0.866090
  H      -2.219088     -3.752237      2.276588
  H      -2.066291     -0.895135      0.830977
  H      -3.167366     -0.491544      2.560477
  H      -4.996902      0.243674      3.670375
  H      -5.982530      1.502591      5.544915
  H      -4.536486      2.907908      7.010053
  H      -2.089367      2.989259      6.583722
  H      -1.095007      1.713196      4.724433
  H       1.924073      1.646891      0.060978
  H       1.056315      2.817940      1.104906
  H       2.399171      2.125743     -2.113505
  H       4.563744      3.529178     -4.210563
  H       0.447255      5.088740     -1.904129
  H       0.132841      5.000412     -0.158246
  H       0.830292     -2.911873      3.938157
  H       0.945788     -1.773899      2.581086
  H       2.216920     -3.009940      2.825451
  H      -2.260956     -3.527429     -1.419275
  H      -1.853100     -5.229778     -1.102311
  H      -0.568605     -4.089683     -1.570420
  C      -6.260718     -2.301905      2.268179
  H      -6.860041     -3.128912      1.868863
  H      -6.668492     -2.010600      3.242562
  H      -5.227539     -2.626819      2.388335
  H      -2.536875      4.250501      2.980321
  H      -4.253016      3.650671      3.275660
  H      -5.078577      5.071928      1.364950
  H      -3.358910      5.665474      1.059897
  H       1.995872     -4.915583     -1.048730
  H       2.860676     -4.627809      1.310326
  H       4.512876     -4.846116      0.728775
  H       3.649913     -5.254625     -1.595409
  H       2.854328     -6.347333     -0.442403
