43
FINAL SINGLE POINT ENERGY      -996.069796533228
O      3.980664 -1.535751  2.075427
C      3.739285 -0.692865  1.228455
C      4.253262  0.676084  1.277219
C      4.712729  1.206523  2.485381
C      5.131130  2.525806  2.552354
C      5.108397  3.310535  1.397569
C      4.675566  2.793410  0.182673
C      4.234259  1.467769  0.117475
N      3.883163  0.859449 -1.085352
C      4.302009  1.474904 -2.351009
N      2.879013 -0.930161  0.102516
C      1.711598 -1.787060  0.268932
C      1.307206 -1.858745  1.620560
C      0.322731 -2.710403  2.078968
C     -0.319703 -3.538848  1.171192
C     -0.048392 -3.358975 -0.172956
C      0.888641 -2.447470 -0.699010
C      0.806645 -2.243010 -2.231322
C      1.823064 -3.163963 -2.948523
C     -0.572187 -2.670661 -2.801317
C      0.885375 -0.729934 -2.589354
C      3.456207 -0.457690 -1.119218
O      3.587681 -1.157303 -2.102407
H      4.717109  0.568772  3.363780
H      5.475076  2.943840  3.492899
H      5.440648  4.343929  1.438875
H      4.691272  3.419291 -0.701408
H      5.389579  1.606310 -2.378615
H      3.813922  2.447094 -2.460964
H      3.992281  0.827185 -3.168555
H      1.785254 -1.224893  2.353050
H      0.072104 -2.717149  3.135620
H     -1.061741 -4.265654  1.487929
H     -0.630509 -3.940903 -0.874624
H      1.470682 -4.198720 -2.868297
H      2.822361 -3.108752 -2.527854
H      1.877583 -2.907300 -4.013212
H     -0.728855 -3.752913 -2.800044
H     -0.605815 -2.346463 -3.847752
H     -1.400376 -2.188285 -2.271172
H      1.444880 -0.571922 -3.515599
H      1.329642 -0.104282 -1.815261
H     -0.126760 -0.338168 -2.733808
